FoamFile {
    version 2.0;
    format ascii;
    class dictionary;
    object MRFProperties;
}
MRF1 {
    cellZone region2;
    active on;
    nonRotatingPatches ();
    origin (0.18 0.0 0.0);
    axis (-1.0 0.0 0.0);
    omega constant -160.0;
}
